 # Positions of nodes
 CRYSTAL
 PRIMVEC
    200.00000000        0.00000000        0.00000000
      0.00000000      200.00000000        0.00000000
      0.00000000        0.00000000        3.16520000
 CONVVEC
    200.00000000        0.00000000        0.00000000
      0.00000000      200.00000000        0.00000000
      0.00000000        0.00000000        3.16520000
 PRIMCOORD
        5 1
1       50.00000000       50.00000000        1.58260000
1      100.00000000      100.00000000        1.58260000
1      150.00000000      150.00000000        1.58260000
1       50.00000000      150.00000000        1.58260000
1      150.00000000       50.00000000        1.58260000
