 # Positions of grains centers of mass
 CRYSTAL
 PRIMVEC
    200.00000000        0.00000000        0.00000000
      0.00000000      200.00000000        0.00000000
      0.00000000        0.00000000        3.16520000
 CONVVEC
    200.00000000        0.00000000        0.00000000
      0.00000000      200.00000000        0.00000000
      0.00000000        0.00000000        3.16520000
 PRIMCOORD
        5 1
1        9.08092111       88.99990524        1.64752020
1        7.75979839       92.54957065        1.64675946
1        9.11962757       89.01629310        1.64918334
1        9.12927651       89.02037834        1.64959794
1        9.14854130       89.02853482        1.65042571
