 # Bcc W oriented X=[100] Y=[010] Z=[001].
 CRYSTAL
 PRIMVEC
      3.16520000        0.00000000        0.00000000
      0.00000000        3.16520000        0.00000000
      0.00000000        0.00000000        3.16520000
 CONVVEC
      3.16520000        0.00000000        0.00000000
      0.00000000        3.16520000        0.00000000
      0.00000000        0.00000000        3.16520000
 PRIMCOORD
        2 1
74        0.00000000        0.00000000        0.00000000
74        1.58260000        1.58260000        1.58260000
